data_image0
_cell_length_a       25.5177
_cell_length_b       25.5177
_cell_length_c       6.9661
_cell_angle_alpha    90
_cell_angle_beta     90
_cell_angle_gamma    120

_symmetry_space_group_name_H-M    "P 1"
_symmetry_int_tables_number       1

loop_
  _symmetry_equiv_pos_as_xyz
  'x, y, z'

loop_
  _atom_site_label
  _atom_site_occupancy
  _atom_site_fract_x
  _atom_site_fract_y
  _atom_site_fract_z
  _atom_site_thermal_displace_type
  _atom_site_B_iso_or_equiv
  _atom_site_type_symbol
  Fe1      1.0000 0.38873  0.35262  0.14770  Biso   1.000  Fe
  Fe2      1.0000 0.64738  0.03611  0.14770  Biso   1.000  Fe
  Fe3      1.0000 0.96389  0.61127  0.14770  Biso   1.000  Fe
  Fe4      1.0000 0.72206  0.01929  0.81437  Biso   1.000  Fe
  Fe5      1.0000 0.98071  0.70278  0.81437  Biso   1.000  Fe
  Fe6      1.0000 0.29722  0.27794  0.81437  Biso   1.000  Fe
  Fe7      1.0000 0.05540  0.68595  0.48103  Biso   1.000  Fe
  Fe8      1.0000 0.31405  0.36944  0.48103  Biso   1.000  Fe
  Fe9      1.0000 0.63056  0.94460  0.48103  Biso   1.000  Fe
  Fe10     1.0000 0.61127  0.64738  0.85230  Biso   1.000  Fe
  Fe11     1.0000 0.35262  0.96389  0.85230  Biso   1.000  Fe
  Fe12     1.0000 0.03611  0.38873  0.85230  Biso   1.000  Fe
  Fe13     1.0000 0.94460  0.31405  0.51897  Biso   1.000  Fe
  Fe14     1.0000 0.68595  0.63056  0.51897  Biso   1.000  Fe
  Fe15     1.0000 0.36944  0.05540  0.51897  Biso   1.000  Fe
  Fe16     1.0000 0.27794  0.98071  0.18563  Biso   1.000  Fe
  Fe17     1.0000 0.01929  0.29722  0.18563  Biso   1.000  Fe
  Fe18     1.0000 0.70278  0.72206  0.18563  Biso   1.000  Fe
  O1       1.0000 0.31820  0.29510  0.35000  Biso   1.000  O
  O2       1.0000 0.70490  0.02310  0.35000  Biso   1.000  O
  O3       1.0000 0.97690  0.68180  0.35000  Biso   1.000  O
  O4       1.0000 0.65153  0.96177  0.01667  Biso   1.000  O
  O5       1.0000 0.03823  0.68977  0.01667  Biso   1.000  O
  O6       1.0000 0.31023  0.34847  0.01667  Biso   1.000  O
  O7       1.0000 0.98487  0.62843  0.68333  Biso   1.000  O
  O8       1.0000 0.37157  0.35643  0.68333  Biso   1.000  O
  O9       1.0000 0.64357  0.01513  0.68333  Biso   1.000  O
  O10      1.0000 0.68180  0.70490  0.65000  Biso   1.000  O
  O11      1.0000 0.29510  0.97690  0.65000  Biso   1.000  O
  O12      1.0000 0.02310  0.31820  0.65000  Biso   1.000  O
  O13      1.0000 0.01513  0.37157  0.31667  Biso   1.000  O
  O14      1.0000 0.62843  0.64357  0.31667  Biso   1.000  O
  O15      1.0000 0.35643  0.98487  0.31667  Biso   1.000  O
  O16      1.0000 0.34847  0.03823  0.98333  Biso   1.000  O
  O17      1.0000 0.96177  0.31023  0.98333  Biso   1.000  O
  O18      1.0000 0.68977  0.65153  0.98333  Biso   1.000  O
  O19      1.0000 0.30680  0.23180  0.58940  Biso   1.000  O
  O20      1.0000 0.76820  0.07500  0.58940  Biso   1.000  O
  O21      1.0000 0.92500  0.69320  0.58940  Biso   1.000  O
  O22      1.0000 0.64013  0.89847  0.25607  Biso   1.000  O
  O23      1.0000 0.10153  0.74167  0.25607  Biso   1.000  O
  O24      1.0000 0.25833  0.35987  0.25607  Biso   1.000  O
  O25      1.0000 0.97347  0.56513  0.92273  Biso   1.000  O
  O26      1.0000 0.43487  0.40833  0.92273  Biso   1.000  O
  O27      1.0000 0.59167  0.02653  0.92273  Biso   1.000  O
  O28      1.0000 0.69320  0.76820  0.41060  Biso   1.000  O
  O29      1.0000 0.23180  0.92500  0.41060  Biso   1.000  O
  O30      1.0000 0.07500  0.30680  0.41060  Biso   1.000  O
  O31      1.0000 0.02653  0.43487  0.07727  Biso   1.000  O
  O32      1.0000 0.56513  0.59167  0.07727  Biso   1.000  O
  O33      1.0000 0.40833  0.97347  0.07727  Biso   1.000  O
  O34      1.0000 0.35987  0.10153  0.74393  Biso   1.000  O
  O35      1.0000 0.89847  0.25833  0.74393  Biso   1.000  O
  O36      1.0000 0.74167  0.64013  0.74393  Biso   1.000  O
  O37      1.0000 0.35450  0.27580  0.00090  Biso   1.000  O
  O38      1.0000 0.72420  0.07870  0.00090  Biso   1.000  O
  O39      1.0000 0.92130  0.64550  0.00090  Biso   1.000  O
  O40      1.0000 0.68783  0.94247  0.66757  Biso   1.000  O
  O41      1.0000 0.05753  0.74537  0.66757  Biso   1.000  O
  O42      1.0000 0.25463  0.31217  0.66757  Biso   1.000  O
  O43      1.0000 0.02117  0.60913  0.33423  Biso   1.000  O
  O44      1.0000 0.39087  0.41203  0.33423  Biso   1.000  O
  O45      1.0000 0.58797  0.97883  0.33423  Biso   1.000  O
  O46      1.0000 0.64550  0.72420  0.99910  Biso   1.000  O
  O47      1.0000 0.27580  0.92130  0.99910  Biso   1.000  O
  O48      1.0000 0.07870  0.35450  0.99910  Biso   1.000  O
  O49      1.0000 0.97883  0.39087  0.66577  Biso   1.000  O
  O50      1.0000 0.60913  0.58797  0.66577  Biso   1.000  O
  O51      1.0000 0.41203  0.02117  0.66577  Biso   1.000  O
  O52      1.0000 0.31217  0.05753  0.33243  Biso   1.000  O
  O53      1.0000 0.94247  0.25463  0.33243  Biso   1.000  O
  O54      1.0000 0.74537  0.68783  0.33243  Biso   1.000  O
  C1       1.0000 0.31890  0.24890  0.41440  Biso   1.000  C
  C2       1.0000 0.75110  0.07000  0.41440  Biso   1.000  C
  C3       1.0000 0.93000  0.68110  0.41440  Biso   1.000  C
  C4       1.0000 0.65223  0.91557  0.08107  Biso   1.000  C
  C5       1.0000 0.08443  0.73667  0.08107  Biso   1.000  C
  C6       1.0000 0.26333  0.34777  0.08107  Biso   1.000  C
  C7       1.0000 0.98557  0.58223  0.74773  Biso   1.000  C
  C8       1.0000 0.41777  0.40333  0.74773  Biso   1.000  C
  C9       1.0000 0.59667  0.01443  0.74773  Biso   1.000  C
  C10      1.0000 0.68110  0.75110  0.58560  Biso   1.000  C
  C11      1.0000 0.24890  0.93000  0.58560  Biso   1.000  C
  C12      1.0000 0.07000  0.31890  0.58560  Biso   1.000  C
  C13      1.0000 0.01443  0.41777  0.25227  Biso   1.000  C
  C14      1.0000 0.58223  0.59667  0.25227  Biso   1.000  C
  C15      1.0000 0.40333  0.98557  0.25227  Biso   1.000  C
  C16      1.0000 0.34777  0.08443  0.91893  Biso   1.000  C
  C17      1.0000 0.91557  0.26333  0.91893  Biso   1.000  C
  C18      1.0000 0.73667  0.65223  0.91893  Biso   1.000  C
  C19      1.0000 0.32760  0.20710  0.27800  Biso   1.000  C
  C20      1.0000 0.79290  0.12050  0.27800  Biso   1.000  C
  C21      1.0000 0.87950  0.67240  0.27800  Biso   1.000  C
  C22      1.0000 0.66093  0.87377  0.94467  Biso   1.000  C
  C23      1.0000 0.12623  0.78717  0.94467  Biso   1.000  C
  C24      1.0000 0.21283  0.33907  0.94467  Biso   1.000  C
  C25      1.0000 0.99427  0.54043  0.61133  Biso   1.000  C
  C26      1.0000 0.45957  0.45383  0.61133  Biso   1.000  C
  C27      1.0000 0.54617  0.00573  0.61133  Biso   1.000  C
  C28      1.0000 0.67240  0.79290  0.72200  Biso   1.000  C
  C29      1.0000 0.20710  0.87950  0.72200  Biso   1.000  C
  C30      1.0000 0.12050  0.32760  0.72200  Biso   1.000  C
  C31      1.0000 0.00573  0.45957  0.38867  Biso   1.000  C
  C32      1.0000 0.54043  0.54617  0.38867  Biso   1.000  C
  C33      1.0000 0.45383  0.99427  0.38867  Biso   1.000  C
  C34      1.0000 0.33907  0.12623  0.05533  Biso   1.000  C
  C35      1.0000 0.87377  0.21283  0.05533  Biso   1.000  C
  C36      1.0000 0.78717  0.66093  0.05533  Biso   1.000  C
  C37      1.0000 0.34440  0.22240  0.08390  Biso   1.000  C
  C38      1.0000 0.77760  0.12200  0.08390  Biso   1.000  C
  C39      1.0000 0.87800  0.65560  0.08390  Biso   1.000  C
  C40      1.0000 0.67773  0.88907  0.75057  Biso   1.000  C
  C41      1.0000 0.11093  0.78867  0.75057  Biso   1.000  C
  C42      1.0000 0.21133  0.32227  0.75057  Biso   1.000  C
  C43      1.0000 0.01107  0.55573  0.41723  Biso   1.000  C
  C44      1.0000 0.44427  0.45533  0.41723  Biso   1.000  C
  C45      1.0000 0.54467  0.98893  0.41723  Biso   1.000  C
  C46      1.0000 0.65560  0.77760  0.91610  Biso   1.000  C
  C47      1.0000 0.22240  0.87800  0.91610  Biso   1.000  C
  C48      1.0000 0.12200  0.34440  0.91610  Biso   1.000  C
  C49      1.0000 0.98893  0.44427  0.58277  Biso   1.000  C
  C50      1.0000 0.55573  0.54467  0.58277  Biso   1.000  C
  C51      1.0000 0.45533  0.01107  0.58277  Biso   1.000  C
  C52      1.0000 0.32227  0.11093  0.24943  Biso   1.000  C
  C53      1.0000 0.88907  0.21133  0.24943  Biso   1.000  C
  C54      1.0000 0.78867  0.67773  0.24943  Biso   1.000  C
  C55      1.0000 0.35120  0.18060  0.97230  Biso   1.000  C
  C56      1.0000 0.81940  0.17060  0.97230  Biso   1.000  C
  C57      1.0000 0.82940  0.64880  0.97230  Biso   1.000  C
  C58      1.0000 0.68453  0.84727  0.63897  Biso   1.000  C
  C59      1.0000 0.15273  0.83727  0.63897  Biso   1.000  C
  C60      1.0000 0.16273  0.31547  0.63897  Biso   1.000  C
  C61      1.0000 0.01787  0.51393  0.30563  Biso   1.000  C
  C62      1.0000 0.48607  0.50393  0.30563  Biso   1.000  C
  C63      1.0000 0.49607  0.98213  0.30563  Biso   1.000  C
  C64      1.0000 0.64880  0.81940  0.02770  Biso   1.000  C
  C65      1.0000 0.18060  0.82940  0.02770  Biso   1.000  C
  C66      1.0000 0.17060  0.35120  0.02770  Biso   1.000  C
  C67      1.0000 0.98213  0.48607  0.69437  Biso   1.000  C
  C68      1.0000 0.51393  0.49607  0.69437  Biso   1.000  C
  C69      1.0000 0.50393  0.01787  0.69437  Biso   1.000  C
  C70      1.0000 0.31547  0.15273  0.36103  Biso   1.000  C
  C71      1.0000 0.84727  0.16273  0.36103  Biso   1.000  C
  C72      1.0000 0.83727  0.68453  0.36103  Biso   1.000  C
  H1       1.0000 0.35960  0.18610  0.82450  Biso   1.000  H
  H2       1.0000 0.81390  0.17350  0.82450  Biso   1.000  H
  H3       1.0000 0.82650  0.64040  0.82450  Biso   1.000  H
  H4       1.0000 0.69293  0.85277  0.49117  Biso   1.000  H
  H5       1.0000 0.14723  0.84017  0.49117  Biso   1.000  H
  H6       1.0000 0.15983  0.30707  0.49117  Biso   1.000  H
  H7       1.0000 0.02627  0.51943  0.15783  Biso   1.000  H
  H8       1.0000 0.48057  0.50683  0.15783  Biso   1.000  H
  H9       1.0000 0.49317  0.97373  0.15783  Biso   1.000  H
  H10      1.0000 0.64040  0.81390  0.17550  Biso   1.000  H
  H11      1.0000 0.18610  0.82650  0.17550  Biso   1.000  H
  H12      1.0000 0.17350  0.35960  0.17550  Biso   1.000  H
  H13      1.0000 0.97373  0.48057  0.84217  Biso   1.000  H
  H14      1.0000 0.51943  0.49317  0.84217  Biso   1.000  H
  H15      1.0000 0.50683  0.02627  0.84217  Biso   1.000  H
  H16      1.0000 0.30707  0.14723  0.50883  Biso   1.000  H
  H17      1.0000 0.85277  0.15983  0.50883  Biso   1.000  H
  H18      1.0000 0.84017  0.69293  0.50883  Biso   1.000  H
  O55      1.0000 0.44090  0.33010  0.32250  Biso   1.000  O
  O56      1.0000 0.66990  0.11080  0.32250  Biso   1.000  O
  O57      1.0000 0.88920  0.55910  0.32250  Biso   1.000  O
  O58      1.0000 0.77423  0.99677  0.98917  Biso   1.000  O
  O59      1.0000 0.00323  0.77747  0.98917  Biso   1.000  O
  O60      1.0000 0.22253  0.22577  0.98917  Biso   1.000  O
  O61      1.0000 0.10757  0.66343  0.65583  Biso   1.000  O
  O62      1.0000 0.33657  0.44413  0.65583  Biso   1.000  O
  O63      1.0000 0.55587  0.89243  0.65583  Biso   1.000  O
  O64      1.0000 0.55910  0.66990  0.67750  Biso   1.000  O
  O65      1.0000 0.33010  0.88920  0.67750  Biso   1.000  O
  O66      1.0000 0.11080  0.44090  0.67750  Biso   1.000  O
  O67      1.0000 0.89243  0.33657  0.34417  Biso   1.000  O
  O68      1.0000 0.66343  0.55587  0.34417  Biso   1.000  O
  O69      1.0000 0.44413  0.10757  0.34417  Biso   1.000  O
  O70      1.0000 0.22577  0.00323  0.01083  Biso   1.000  O
  O71      1.0000 0.99677  0.22253  0.01083  Biso   1.000  O
  O72      1.0000 0.77747  0.77423  0.01083  Biso   1.000  O
  O73      1.0000 0.47640  0.36830  0.20450  Biso   1.000  O
  O74      1.0000 0.63170  0.10810  0.20450  Biso   1.000  O
  O75      1.0000 0.89190  0.52360  0.20450  Biso   1.000  O
  O76      1.0000 0.80973  0.03497  0.87117  Biso   1.000  O
  O77      1.0000 0.96503  0.77477  0.87117  Biso   1.000  O
  O78      1.0000 0.22523  0.19027  0.87117  Biso   1.000  O
  O79      1.0000 0.14307  0.70163  0.53783  Biso   1.000  O
  O80      1.0000 0.29837  0.44143  0.53783  Biso   1.000  O
  O81      1.0000 0.55857  0.85693  0.53783  Biso   1.000  O
  O82      1.0000 0.52360  0.63170  0.79550  Biso   1.000  O
  O83      1.0000 0.36830  0.89190  0.79550  Biso   1.000  O
  O84      1.0000 0.10810  0.47640  0.79550  Biso   1.000  O
  O85      1.0000 0.85693  0.29837  0.46217  Biso   1.000  O
  O86      1.0000 0.70163  0.55857  0.46217  Biso   1.000  O
  O87      1.0000 0.44143  0.14307  0.46217  Biso   1.000  O
  O88      1.0000 0.19027  0.96503  0.12883  Biso   1.000  O
  O89      1.0000 0.03497  0.22523  0.12883  Biso   1.000  O
  O90      1.0000 0.77477  0.80973  0.12883  Biso   1.000  O
  O91      1.0000 0.51340  0.67470  0.24700  Biso   1.000  O
  O92      1.0000 0.32530  0.83870  0.24700  Biso   1.000  O
  O93      1.0000 0.16130  0.48660  0.24700  Biso   1.000  O
  O94      1.0000 0.84673  0.34137  0.91367  Biso   1.000  O
  O95      1.0000 0.65863  0.50537  0.91367  Biso   1.000  O
  O96      1.0000 0.49463  0.15327  0.91367  Biso   1.000  O
  O97      1.0000 0.18007  0.00803  0.58033  Biso   1.000  O
  O98      1.0000 0.99197  0.17203  0.58033  Biso   1.000  O
  O99      1.0000 0.82797  0.81993  0.58033  Biso   1.000  O
  O100     1.0000 0.48660  0.32530  0.75300  Biso   1.000  O
  O101     1.0000 0.67470  0.16130  0.75300  Biso   1.000  O
  O102     1.0000 0.83870  0.51340  0.75300  Biso   1.000  O
  O103     1.0000 0.81993  0.99197  0.41967  Biso   1.000  O
  O104     1.0000 0.00803  0.82797  0.41967  Biso   1.000  O
  O105     1.0000 0.17203  0.18007  0.41967  Biso   1.000  O
  O106     1.0000 0.15327  0.65863  0.08633  Biso   1.000  O
  O107     1.0000 0.34137  0.49463  0.08633  Biso   1.000  O
  O108     1.0000 0.50537  0.84673  0.08633  Biso   1.000  O
  O109     1.0000 0.52950  0.72440  0.30870  Biso   1.000  O
  O110     1.0000 0.27560  0.80510  0.30870  Biso   1.000  O
  O111     1.0000 0.19490  0.47050  0.30870  Biso   1.000  O
  O112     1.0000 0.86283  0.39107  0.97537  Biso   1.000  O
  O113     1.0000 0.60893  0.47177  0.97537  Biso   1.000  O
  O114     1.0000 0.52823  0.13717  0.97537  Biso   1.000  O
  O115     1.0000 0.19617  0.05773  0.64203  Biso   1.000  O
  O116     1.0000 0.94227  0.13843  0.64203  Biso   1.000  O
  O117     1.0000 0.86157  0.80383  0.64203  Biso   1.000  O
  O118     1.0000 0.47050  0.27560  0.69130  Biso   1.000  O
  O119     1.0000 0.72440  0.19490  0.69130  Biso   1.000  O
  O120     1.0000 0.80510  0.52950  0.69130  Biso   1.000  O
  O121     1.0000 0.80383  0.94227  0.35797  Biso   1.000  O
  O122     1.0000 0.05773  0.86157  0.35797  Biso   1.000  O
  O123     1.0000 0.13843  0.19617  0.35797  Biso   1.000  O
  O124     1.0000 0.13717  0.60893  0.02463  Biso   1.000  O
  O125     1.0000 0.39107  0.52823  0.02463  Biso   1.000  O
  O126     1.0000 0.47177  0.86283  0.02463  Biso   1.000  O
  O127     1.0000 0.05900  0.13620  0.96700  Biso   1.000  O
  O128     1.0000 0.86380  0.92280  0.96700  Biso   1.000  O
  O129     1.0000 0.07720  0.94100  0.96700  Biso   1.000  O
  O130     1.0000 0.39233  0.80287  0.63367  Biso   1.000  O
  O131     1.0000 0.19713  0.58947  0.63367  Biso   1.000  O
  O132     1.0000 0.41053  0.60767  0.63367  Biso   1.000  O
  O133     1.0000 0.72567  0.46953  0.30033  Biso   1.000  O
  O134     1.0000 0.53047  0.25613  0.30033  Biso   1.000  O
  O135     1.0000 0.74387  0.27433  0.30033  Biso   1.000  O
  O136     1.0000 0.94100  0.86380  0.03300  Biso   1.000  O
  O137     1.0000 0.13620  0.07720  0.03300  Biso   1.000  O
  O138     1.0000 0.92280  0.05900  0.03300  Biso   1.000  O
  O139     1.0000 0.27433  0.53047  0.69967  Biso   1.000  O
  O140     1.0000 0.46953  0.74387  0.69967  Biso   1.000  O
  O141     1.0000 0.25613  0.72567  0.69967  Biso   1.000  O
  O142     1.0000 0.60767  0.19713  0.36633  Biso   1.000  O
  O143     1.0000 0.80287  0.41053  0.36633  Biso   1.000  O
  O144     1.0000 0.58947  0.39233  0.36633  Biso   1.000  O
  O145     1.0000 0.08100  0.18300  0.87900  Biso   1.000  O
  O146     1.0000 0.81700  0.89800  0.87900  Biso   1.000  O
  O147     1.0000 0.10200  0.91900  0.87900  Biso   1.000  O
  O148     1.0000 0.41433  0.84967  0.54567  Biso   1.000  O
  O149     1.0000 0.15033  0.56467  0.54567  Biso   1.000  O
  O150     1.0000 0.43533  0.58567  0.54567  Biso   1.000  O
  O151     1.0000 0.74767  0.51633  0.21233  Biso   1.000  O
  O152     1.0000 0.48367  0.23133  0.21233  Biso   1.000  O
  O153     1.0000 0.76867  0.25233  0.21233  Biso   1.000  O
  O154     1.0000 0.91900  0.81700  0.12100  Biso   1.000  O
  O155     1.0000 0.18300  0.10200  0.12100  Biso   1.000  O
  O156     1.0000 0.89800  0.08100  0.12100  Biso   1.000  O
  O157     1.0000 0.25233  0.48367  0.78767  Biso   1.000  O
  O158     1.0000 0.51633  0.76867  0.78767  Biso   1.000  O
  O159     1.0000 0.23133  0.74767  0.78767  Biso   1.000  O
  O160     1.0000 0.58567  0.15033  0.45433  Biso   1.000  O
  O161     1.0000 0.84967  0.43533  0.45433  Biso   1.000  O
  O162     1.0000 0.56467  0.41433  0.45433  Biso   1.000  O
